1l5s
 OpenBabel12210915543D

 18 19  0  0  0  0  0  0  0  0999 V2000
    1.3136    0.9963    1.3646 N   0  0  0  0  0
    0.1256    0.8093    1.9446 C   0  0  0  0  0
    1.5776    0.5973    0.1226 C   0  0  0  0  0
   -0.8794    0.1972    1.2866 N   0  0  0  0  0
   -0.0474    1.2043    3.0906 O   0  0  0  0  0
   -0.7144   -0.2357    0.0406 C   0  0  0  0  0
    0.4606   -0.0798   -0.6074 C   0  0  0  0  0
   -1.5084   -0.8418   -0.7984 N   0  0  0  0  0
    2.6576    0.7673   -0.4204 O   0  0  0  0  0
    0.3146   -0.5957   -1.7974 N   0  0  0  0  0
   -0.8994   -1.0738   -1.9444 C   0  0  0  0  0
   -1.3654   -1.6178   -2.9384 O   0  0  0  0  0
    2.0938    1.4926    1.9274 H   0  0  0  0  0
   -1.8330    0.0567    1.7792 H   0  0  0  0  0
   -1.3880   -0.1209    0.9531 H   0  0  0  0  0
    1.5388    0.1878   -0.8635 H   0  0  0  0  0
   -2.5325   -1.1178   -0.5821 H   0  0  0  0  0
    1.0859   -0.6255   -2.5564 H   0  0  0  0  0
  1  2  1  0  0  0
  1  3  1  0  0  0
  1 13  1  0  0  0
  2  4  1  0  0  0
  2  5  2  0  0  0
  3  7  1  0  0  0
  3  9  2  0  0  0
  4  6  1  0  0  0
  4 14  1  0  0  0
  6  7  1  0  0  0
  6  8  1  0  0  0
  6 15  1  0  0  0
  7 10  1  0  0  0
  7 16  1  0  0  0
  8 11  1  0  0  0
  8 17  1  0  0  0
 10 11  1  0  0  0
 10 18  1  0  0  0
 11 12  2  0  0  0
M  END
$$$$

